powerfactory/powerfactory-converter/src/test/resources/LineWithOnlyOneSide.xiidm
<?xml version="1.0" encoding="UTF-8"?>
<iidm:network xmlns:iidm="http://www.powsybl.org/schema/iidm/1_9" id="LineWithOnlyOneSide" caseDate="2021-01-01T10:00:00.000+02:00" forecastDistance="0" sourceFormat="POWER-FACTORY" minimumValidationLevel="STEADY_STATE_HYPOTHESIS">
    <iidm:substation id="S3">
        <iidm:voltageLevel id="VL3" nominalV="220.0" topologyKind="NODE_BREAKER">
            <iidm:nodeBreakerTopology>
                <iidm:busbarSection id="VL3_Busbar-A" node="0"/>
                <iidm:switch id="VL3_Switch" kind="BREAKER" retained="false" open="false" node1="0" node2="1"/>
            </iidm:nodeBreakerTopology>
        </iidm:voltageLevel>
    </iidm:substation>
    <iidm:substation id="S4">
        <iidm:voltageLevel id="VL4" nominalV="220.0" topologyKind="NODE_BREAKER">
            <iidm:nodeBreakerTopology>
                <iidm:busbarSection id="VL4_Busbar-B" node="0"/>
            </iidm:nodeBreakerTopology>
        </iidm:voltageLevel>
    </iidm:substation>
</iidm:network>
